ELEMENTS
O  H  C  N  AR  HE
END

SPECIES
POSF10325 O2 N2 CO2 H2O
END

REACTIONS
END
